$ NASTRAN input file created by the Patran 2012.2.1 64-Bit input file
$ translator on November  20, 2014 at 08:51:48.
$ Direct Text Input for Nastran System Cell Section
$ Linear Static Analysis, Non-database
SOL 1
CEND
ECHO = NONE
SUBCASE 1
$ Subcase name : Default
   SUBTITLE=Default
   SPC = 2
   LOAD = 2
   DISPLACEMENT(SORT1,REAL)=ALL
   SPCFORCES(SORT1,REAL)=ALL
   STRESS(SORT1,REAL,VONMISES,BILIN)=ALL
BEGIN BULK
PARAM    POST    0
PARAM   PRTMAXIM YES
$ Elements and Element Properties for region : prop_alu_1mm
PSHELL   1       1      .001     1               1
$ Pset: "prop_alu_1mm" will be imported as: "pshell.1"
CTRIA3   6125    1       626     627     3772
CTRIA3   6156    1       728     729     3778
CTRIA3   6182    1       661     662     3783
CTRIA3   6232    1       39      677     3793
CTRIA3   6255    1       24      756     3797
CTRIA3   6262    1       629     630     3798
CTRIA3   6286    1       17      723     3803
CTRIA3   6292    1       25      3804    758
CTRIA3   6315    1       44      3808    657
CTRIA3   6318    1       718     719     3809
CTRIA3   6323    1       42      3810    667
CTRIA3   6340    1       624     625     3813
CTRIA3   6363    1       653     654     3818
CTRIA3   6374    1       671     672     3820
CTRIA3   6401    1       18      3826    727
CTRIA3   6422    1       721     722     3830
CTRIA3   6426    1       16      3831    717
CTRIA3   6432    1       668     669     3832
CTRIA3   6440    1       20      3833    737
CTRIA3   6458    1       50      633     3837
$ ... 33890 like lines cut
$ Referenced Material Records
$ Material Record : alu
$ Description of Material : Date: 19-Nov-14           Time: 16:34:13
MAT1     1      7.+10           .3      2700.
$ Nodes of the Entire Model
GRID     1              .004505  0.     .005695
GRID     2              .006477  0.     .006851
GRID     3              .008772  0.     .007956
GRID     4              .01139   0.     .009027
GRID     5              .014331  0.     .010098
GRID     6              .017561  0.     .011135
GRID     7              .021097  0.     .012121
GRID     8              .024905  0.     .013022
GRID     9              .028951  0.     .013787
GRID     10             .033252  0.     .014416
GRID     11             .037774  0.     .014909
GRID     12             .0425    0.     .0153
GRID     13             .047413  0.     .015572
GRID     14             .052479  0.     .015759
GRID     15             .057681  0.     .015844
GRID     16             .063002  0.     .015827
GRID     17             .073899  0.     .015521
GRID     18             .085     0.     .014824
GRID     19             .096101  0.     .013787
GRID     20             .106998  0.     .012444
$ ... 18531 like lines cut
$ Loads for Load Case : Default
SPCADD   2       1
LOAD     2      1.      1.       1
$ Displacement Constraints of Load Set : encastrement
SPC1     1       123456  1       THRU    56
SPC1     1       123456  617     THRU    759
SPC1     1       123456  3630    THRU    4580
$ Nodal Forces of Load Set : force-en-B
FORCE    1       602     0      .1962    0.      0.     -1.
$ Referenced Coordinate Frames
ENDDATA 1b9b0ec4
